@<TRIPOS>MOLECULE
A04
56   59    1
SMALL
USER_CHARGES


@<TRIPOS>ATOM
      1 O1          0.3230  -27.9780  -14.2500 O.2       1 A04        -0.2525 
      2 C1         -0.0110  -27.9960  -13.0580 C.2       1 A04         0.3045 
      3 N1         -1.2130  -27.6780  -12.5750 N.am      1 A04        -0.2662 
      4 H1         -1.3210  -27.6350  -11.5700 H         1 A04         0.1565 
      5 N6          0.7980  -28.3360  -12.0580 N.am      1 A04        -0.2901 
      6 H22         0.4350  -28.2880  -11.1220 H         1 A04         0.1509 
      7 C2         -2.4480  -27.5790  -13.2530 C.ar      1 A04         0.0832 
      8 C15         2.1370  -28.8910  -12.1700 C.3       1 A04         0.0729 
      9 H16         2.4120  -28.9400  -13.2260 H         1 A04         0.0571 
     10 C3         -2.7140  -27.6910  -14.5860 C.ar      1 A04         0.0443 
     11 H2         -2.0820  -27.8570  -15.4480 H         1 A04         0.0843 
     12 C14         2.1410  -30.3160  -11.5790 C.3       1 A04         0.0667 
     13 H14         1.1390  -30.7330  -11.5000 H         1 A04         0.0579 
     14 HC1         2.5680  -30.3470  -10.5750 H         1 A04         0.0579 
     15 C16         3.1490  -28.0100  -11.4610 C.ar      1 A04        -0.0236 
     16 C99         2.9205  -31.2540  -12.5192 C.3       1 A04        -0.3928 
     17 N2         -4.0810  -27.5550  -14.6780 N.pl3     1 A04        -0.2822 
     18 H3         -4.6050  -27.5680  -15.5650 H         1 A04         0.1883 
     19 C17         2.8780  -27.5020  -10.1700 C.ar      1 A04        -0.0566 
     20 H17         1.9500  -27.7390   -9.6700 H         1 A04         0.0621 
     21 O21         3.6398  -32.1770  -11.7325 O.3       1 A04         0.2095 
     22 N3         -4.6910  -27.3610  -13.4810 N.2       1 A04        -0.1689 
     23 C18         3.8290  -26.6990   -9.5170 C.ar      1 A04        -0.0601 
     24 H18         3.6490  -26.3280   -8.5210 H         1 A04         0.0618 
     25 C4         -3.6990  -27.3950  -12.5940 C.ar      1 A04         0.1486 
     26 C19         5.0360  -26.3840  -10.1590 C.ar      1 A04        -0.0434 
     27 H19         5.7380  -25.7400   -9.6660 H         1 A04         0.0632 
     28 C5         -4.0010  -27.2650  -11.1580 C.ar      1 A04         0.1613 
     29 C20         5.3330  -26.9180  -11.4250 C.ar      1 A04         0.0413 
     30 N4         -5.2580  -27.1200  -10.7060 N.pl3     1 A04        -0.3365 
     31 H4         -6.0800  -27.2020  -11.2980 H         1 A04         0.1674 
     32 N5         -3.0760  -27.3040  -10.1860 N.2       1 A04        -0.2259 
     33 C21         4.3880  -27.7300  -12.0730 C.ar      1 A04        -0.0384 
     34 H21         4.6300  -28.1490  -13.0370 H         1 A04         0.0635 
     35 C6         -5.2220  -27.1080   -9.3320 C.ar      1 A04         0.0702 
     36 C7         -6.2060  -27.0040   -8.3390 C.ar      1 A04         0.0092 
     37 H5         -7.2360  -26.9120   -8.6440 H         1 A04         0.0677 
     38 C8         -5.8210  -27.0760   -6.9790 C.ar      1 A04         0.1636 
     39 O2         -6.7150  -27.0050   -5.9330 O.3       1 A04        -0.4914 
     40 C9         -4.4570  -27.2730   -6.6480 C.ar      1 A04         0.1636 
     41 O3         -4.1610  -27.4020   -5.3080 O.3       1 A04        -0.4914 
     42 C10        -3.4770  -27.3430   -7.6730 C.ar      1 A04         0.0112 
     43 H6         -2.4300  -27.4530   -7.4430 H         1 A04         0.0677 
     44 C13        -8.0970  -26.8720   -6.2300 C.3       1 A04         0.0790 
     45 H10        -8.6670  -26.8530   -5.3020 H         1 A04         0.0660 
     46 H11        -8.3040  -25.9450   -6.7660 H         1 A04         0.0660 
     47 H12        -8.4580  -27.7150   -6.8180 H         1 A04         0.0660 
     48 C11        -3.8440  -27.2570   -9.0300 C.ar      1 A04         0.0932 
     49 C12        -2.8960  -27.9360   -4.9450 C.3       1 A04         0.0790 
     50 H7         -2.8930  -28.1520   -3.8770 H         1 A04         0.0660 
     51 H8         -2.6870  -28.8690   -5.4700 H         1 A04         0.0660 
     52 H9         -2.0920  -27.2280   -5.1350 H         1 A04         0.0660 
     53 HC          6.2813  -26.7053  -11.8960 H         1 A04         0.0000 
     54 H54         3.6168  -30.6690  -13.1201 H         1 A04         0.0000 
     55 H55         2.2200  -31.7908  -13.1590 H         1 A04         0.0000 
     56 H56         4.1322  -32.7703  -12.3045 H         1 A04         0.0000 
@<TRIPOS>BOND
     1    1    2 2    
     2    2    3 am   BACKBONE|DICT|INTERRES
     3    2    5 am   BACKBONE|DICT|INTERRES
     4    3    7 1    
     5    3    4 1    
     6    5    8 1    
     7    5    6 1    
     8    7   10 ar   
     9    7   25 ar   
    10    8    9 1    
    11    8   12 1    
    12    8   15 1    
    13   10   11 1    
    14   10   17 ar   
    15   12   16 1    
    16   12   13 1    
    17   12   14 1    
    18   15   33 ar   
    19   15   19 ar   
    20   16   21 1    
    21   16   54 1    
    22   16   55 1    
    23   17   18 1    
    24   17   22 ar   
    25   19   20 1    
    26   19   23 ar   
    27   21   56 1    
    28   22   25 ar   
    29   23   26 ar   
    30   23   24 1    
    31   25   28 1    
    32   26   29 ar   
    33   26   27 1    
    34   28   30 ar   
    35   28   32 ar   
    36   29   33 ar   
    37   29   53 1    
    38   30   31 1    
    39   30   35 ar   
    40   32   48 ar   
    41   33   34 1    
    42   35   48 ar   
    43   35   36 ar   
    44   36   37 1    
    45   36   38 ar   
    46   38   40 ar   
    47   38   39 1    
    48   39   44 1    
    49   40   42 ar   
    50   40   41 1    
    51   41   49 1    
    52   42   48 ar   
    53   42   43 1    
    54   44   47 1    
    55   44   46 1    
    56   44   45 1    
    57   49   51 1    
    58   49   52 1    
    59   49   50 1    
@<TRIPOS>SUBSTRUCTURE
     1 A04         1 GROUP             0       ****    0 ROOT    
