@<TRIPOS>MOLECULE
A04
   56    59     1     0     0
SMALL
bcc


@<TRIPOS>ATOM
      1 O1           0.3230   -27.9780   -14.2500 o          1 A04      -0.643100
      2 C1          -0.0110   -27.9960   -13.0580 c          1 A04       0.761100
      3 N1          -1.2130   -27.6780   -12.5750 n          1 A04      -0.431100
      4 H1          -1.3210   -27.6350   -11.5700 hn         1 A04       0.349500
      5 N6           0.7980   -28.3360   -12.0580 n          1 A04      -0.531900
      6 H22          0.4350   -28.2880   -11.1220 hn         1 A04       0.297500
      7 C2          -2.4480   -27.5790   -13.2530 cc         1 A04      -0.053700
      8 C15          2.1370   -28.8910   -12.1700 c3         1 A04       0.136000
      9 H16          2.4120   -28.9400   -13.2260 h1         1 A04       0.098700
     10 C3          -2.7140   -27.6910   -14.5860 cd         1 A04      -0.169300
     11 H2          -2.0820   -27.8570   -15.4480 h4         1 A04       0.218000
     12 C14          2.1410   -30.3160   -11.5790 c3         1 A04      -0.083400
     13 H14          1.1390   -30.7330   -11.5000 hc         1 A04       0.064700
     14 HC1          2.5680   -30.3470   -10.5750 hc         1 A04       0.064700
     15 C16          3.1490   -28.0100   -11.4610 ca         1 A04      -0.122300
     16 C99          2.9210   -31.2540   -12.5190 c3         1 A04       0.130400
     17 N2          -4.0810   -27.5550   -14.6780 na         1 A04       0.005400
     18 H3          -4.6050   -27.5680   -15.5650 hn         1 A04       0.328700
     19 C17          2.8780   -27.5020   -10.1700 ca         1 A04      -0.117500
     20 H17          1.9500   -27.7390    -9.6700 ha         1 A04       0.135000
     21 O21          3.6400   -32.1770   -11.7320 oh         1 A04      -0.601800
     22 N3          -4.6910   -27.3610   -13.4810 nd         1 A04      -0.510800
     23 C18          3.8290   -26.6990    -9.5170 ca         1 A04      -0.129500
     24 H18          3.6490   -26.3280    -8.5210 ha         1 A04       0.134000
     25 C4          -3.6990   -27.3950   -12.5940 cc         1 A04       0.248000
     26 C19          5.0360   -26.3840   -10.1590 ca         1 A04      -0.123000
     27 H19          5.7380   -25.7400    -9.6660 ha         1 A04       0.133000
     28 C5          -4.0010   -27.2650   -11.1580 cc         1 A04       0.395800
     29 C20          5.3330   -26.9180   -11.4250 ca         1 A04      -0.129500
     30 N4          -5.2580   -27.1200   -10.7060 na         1 A04      -0.256300
     31 H4          -6.0800   -27.2020   -11.2980 hn         1 A04       0.317700
     32 N5          -3.0760   -27.3040   -10.1860 nd         1 A04      -0.597100
     33 C21          4.3880   -27.7300   -12.0730 ca         1 A04      -0.117500
     34 H21          4.6300   -28.1490   -13.0370 ha         1 A04       0.135000
     35 C6          -5.2220   -27.1080    -9.3320 ca         1 A04      -0.070200
     36 C7          -6.2060   -27.0040    -8.3390 ca         1 A04      -0.192000
     37 H5          -7.2360   -26.9120    -8.6440 ha         1 A04       0.146000
     38 C8          -5.8210   -27.0760    -6.9790 ca         1 A04       0.127100
     39 O2          -6.7150   -27.0050    -5.9330 os         1 A04      -0.300900
     40 C9          -4.4570   -27.2730    -6.6480 ca         1 A04       0.092100
     41 O3          -4.1610   -27.4020    -5.3080 os         1 A04      -0.304900
     42 C10         -3.4770   -27.3430    -7.6730 ca         1 A04      -0.135000
     43 H6          -2.4300   -27.4530    -7.4430 ha         1 A04       0.154000
     44 C13         -8.0970   -26.8720    -6.2300 c3         1 A04       0.109700
     45 H10         -8.6670   -26.8530    -5.3020 h1         1 A04       0.044367
     46 H11         -8.3040   -25.9450    -6.7660 h1         1 A04       0.044367
     47 H12         -8.4580   -27.7150    -6.8180 h1         1 A04       0.044367
     48 C11         -3.8440   -27.2570    -9.0300 ca         1 A04       0.076400
     49 C12         -2.8960   -27.9360    -4.9450 c3         1 A04       0.109700
     50 H7          -2.8930   -28.1520    -3.8770 h1         1 A04       0.044033
     51 H8          -2.6870   -28.8690    -5.4700 h1         1 A04       0.044033
     52 H9          -2.0920   -27.2280    -5.1350 h1         1 A04       0.044033
     53 HC           6.2810   -26.7050   -11.8960 ha         1 A04       0.134000
     54 H54          3.6170   -30.6690   -13.1200 h1         1 A04       0.027200
     55 H55          2.2200   -31.7910   -13.1590 h1         1 A04       0.027200
     56 H56          4.1320   -32.7700   -12.3050 ho         1 A04       0.401000
@<TRIPOS>BOND
     1     1     2 2   
     2     2     3 1   
     3     2     5 1   
     4     3     7 1   
     5     3     4 1   
     6     5     8 1   
     7     5     6 1   
     8     7    10 2   
     9     7    25 1   
    10     8     9 1   
    11     8    12 1   
    12     8    15 1   
    13    10    11 1   
    14    10    17 1   
    15    12    16 1   
    16    12    13 1   
    17    12    14 1   
    18    15    33 ar  
    19    15    19 ar  
    20    16    21 1   
    21    16    54 1   
    22    16    55 1   
    23    17    18 1   
    24    17    22 1   
    25    19    20 1   
    26    19    23 ar  
    27    21    56 1   
    28    22    25 2   
    29    23    26 ar  
    30    23    24 1   
    31    25    28 1   
    32    26    29 ar  
    33    26    27 1   
    34    28    30 1   
    35    28    32 2   
    36    29    33 ar  
    37    29    53 1   
    38    30    31 1   
    39    30    35 1   
    40    32    48 1   
    41    33    34 1   
    42    35    48 ar  
    43    35    36 ar  
    44    36    37 1   
    45    36    38 ar  
    46    38    40 ar  
    47    38    39 1   
    48    39    44 1   
    49    40    42 ar  
    50    40    41 1   
    51    41    49 1   
    52    42    48 ar  
    53    42    43 1   
    54    44    47 1   
    55    44    46 1   
    56    44    45 1   
    57    49    51 1   
    58    49    52 1   
    59    49    50 1   
@<TRIPOS>SUBSTRUCTURE
     1 A04         1 TEMP              0 ****  ****    0 ROOT
